/*--------------------------------*- C++ -*----------------------------------*\
| =========                 |                                                 |
| \\      /  F ield         | OpenFOAM: The Open Source CFD Toolbox           |
|  \\    /   O peration     | Version:  2312                                  |
|   \\  /    A nd           | Website:  www.openfoam.com                      |
|    \\/     M anipulation  |                                                 |
\*---------------------------------------------------------------------------*/
FoamFile
{
    version     2.0;
    format      ascii;
    arch        "LSB;label=32;scalar=64";
    class       extendedFeatureEdgeMesh;
    location    "constant/extendedFeatureEdgeMesh";
    object      vessel.extendedFeatureEdgeMesh;
}
// * * * * * * * * * * * * * * * * * * * * * * * * * * * * * * * * * * * * * //

// points

459
(
(-0.0243559 -0.0500015 0.198511)
(-0.0308045 -0.0500015 0.197613)
(-0.0499271 -0.0500015 0.193668)
(-0.068574 -0.0500015 0.187877)
(-0.0865672 -0.0500015 0.180294)
(-0.0923898 -0.0500015 0.177381)
(-0.109246 -0.0500015 0.167527)
(-0.125061 -0.0500015 0.156076)
(-0.130075 -0.0500015 0.151922)
(-0.144269 -0.0500015 0.138515)
(-0.157089 -0.0500015 0.123787)
(-0.16841 -0.0500015 0.107879)
(-0.171833 -0.0500015 0.10234)
(-0.180993 -0.0500015 0.0850969)
(-0.188429 -0.0500015 0.0670426)
(-0.190511 -0.0500015 0.0608738)
(-0.195539 -0.0500015 0.0420068)
(-0.198703 -0.0500015 0.0227395)
(-0.199973 -0.0500015 0.00325539)
(-0.199973 -0.0500015 -0.00325539)
(-0.198703 -0.0500015 -0.0227395)
(-0.195539 -0.0500015 -0.0420068)
(-0.190511 -0.0500015 -0.0608738)
(-0.188429 -0.0500015 -0.0670426)
(-0.180993 -0.0500015 -0.0850969)
(-0.171833 -0.0500015 -0.10234)
(-0.16841 -0.0500015 -0.107879)
(-0.157089 -0.0500015 -0.123787)
(-0.144269 -0.0500015 -0.138515)
(-0.130075 -0.0500015 -0.151922)
(-0.125061 -0.0500015 -0.156076)
(-0.109246 -0.0500015 -0.167527)
(-0.0923898 -0.0500015 -0.177381)
(-0.0865672 -0.0500015 -0.180294)
(-0.068574 -0.0500015 -0.187877)
(-0.0499271 -0.0500015 -0.193668)
(-0.0308045 -0.0500015 -0.197613)
(-0.0243559 -0.0500015 -0.198511)
(-0.00488282 -0.0500015 -0.19994)
(0.0146368 -0.0500015 -0.199464)
(0.040414 -0.0500015 -0.195874)
(0.0593213 -0.0500015 -0.191)
(0.0776632 -0.0500015 -0.184305)
(0.0836211 -0.0500015 -0.18168)
(0.100938 -0.0500015 -0.17266)
(0.117293 -0.0500015 -0.161995)
(0.132531 -0.0500015 -0.149785)
(0.137336 -0.0500015 -0.145392)
(0.150859 -0.0500015 -0.131307)
(0.162944 -0.0500015 -0.115971)
(0.166632 -0.0500015 -0.110606)
(0.176623 -0.0500015 -0.0938304)
(0.184931 -0.0500015 -0.0761606)
(0.191476 -0.0500015 -0.0577648)
(0.193255 -0.0500015 -0.0515017)
(0.197356 -0.0500015 -0.0324118)
(0.199576 -0.0500015 -0.013013)
(0.199576 -0.0500015 0.013013)
(0.197356 -0.0500015 0.0324118)
(0.193255 -0.0500015 0.0515017)
(0.191476 -0.0500015 0.0577648)
(0.184931 -0.0500015 0.0761606)
(0.176623 -0.0500015 0.0938304)
(0.166632 -0.0500015 0.110606)
(0.162944 -0.0500015 0.115971)
(0.150859 -0.0500015 0.131307)
(0.137336 -0.0500015 0.145392)
(0.132531 -0.0500015 0.149785)
(0.117293 -0.0500015 0.161995)
(0.100938 -0.0500015 0.17266)
(0.0836211 -0.0500015 0.18168)
(0.0776632 -0.0500015 0.184305)
(0.0593213 -0.0500015 0.191)
(0.040414 -0.0500015 0.195874)
(0.0146368 -0.0500015 0.199464)
(-0.00488282 -0.0500015 0.19994)
(-0.0184537 -0.05 0.199147)
(-0.0178815 -0.0500015 0.199199)
(-0.00923669 0.3 0.199787)
(-0.0184537 0.3 0.199147)
(-0.0276313 0.3 0.198082)
(-0.0276313 -0.05 0.198082)
(-0.0367499 0.3 0.196595)
(-0.0367499 -0.05 0.196595)
(-0.0457901 0.3 0.194688)
(-0.0372204 -0.0500015 0.196506)
(-0.0562045 -0.0500015 0.19194)
(-0.0547326 -0.05 0.192365)
(-0.0547326 0.3 0.192365)
(-0.0457901 -0.05 0.194688)
(-0.0435969 -0.0500015 0.19519)
(-0.0635583 0.3 0.189632)
(-0.0722483 0.3 0.186494)
(-0.0635583 -0.05 0.189632)
(-0.0624223 -0.0500015 0.190009)
(-0.0746529 -0.0500015 0.185545)
(-0.0722483 -0.05 0.186494)
(-0.0807842 -0.05 0.182959)
(-0.0806528 -0.0500015 0.183017)
(-0.0807842 0.3 0.182959)
(-0.0891477 0.3 0.179033)
(-0.0891477 -0.05 0.179033)
(-0.0973209 0.3 0.174725)
(-0.0973209 -0.05 0.174725)
(-0.105286 0.3 0.170043)
(-0.0981146 -0.0500015 0.17428)
(-0.113027 0.3 0.164999)
(-0.105286 -0.05 0.170043)
(-0.103735 -0.0500015 0.170994)
(-0.114641 -0.0500015 0.163882)
(-0.113027 -0.05 0.164999)
(-0.120527 -0.05 0.159603)
(-0.119915 -0.0500015 0.160064)
(-0.120527 0.3 0.159603)
(-0.127769 0.3 0.153867)
(-0.127769 -0.05 0.153867)
(-0.134739 0.3 0.147802)
(-0.134739 -0.05 0.147802)
(-0.141421 0.3 0.141421)
(-0.134951 -0.0500015 0.147608)
(-0.148702 -0.0500015 0.133746)
(-0.147802 -0.05 0.134739)
(-0.147802 0.3 0.134739)
(-0.141421 -0.05 0.141421)
(-0.139684 -0.0500015 0.143137)
(-0.153867 0.3 0.127769)
(-0.159603 0.3 0.120527)
(-0.153867 -0.05 0.127769)
(-0.152976 -0.0500015 0.128834)
(-0.161035 -0.0500015 0.118608)
(-0.159603 -0.05 0.120527)
(-0.164999 -0.05 0.113027)
(-0.16481 -0.0500015 0.113304)
(-0.164999 0.3 0.113027)
(-0.170043 0.3 0.105286)
(-0.170043 -0.05 0.105286)
(-0.174725 0.3 0.0973209)
(-0.174725 -0.05 0.0973209)
(-0.179033 0.3 0.0891477)
(-0.175073 -0.0500015 0.0966929)
(-0.182959 0.3 0.0807842)
(-0.179033 -0.05 0.0891477)
(-0.178127 -0.0500015 0.0909431)
(-0.183667 -0.0500015 0.0791606)
(-0.182959 -0.05 0.0807842)
(-0.186494 -0.05 0.0722483)
(-0.186146 -0.0500015 0.0731404)
(-0.186494 0.3 0.0722483)
(-0.189632 0.3 0.0635583)
(-0.189632 -0.05 0.0635583)
(-0.192365 0.3 0.0547326)
(-0.192365 -0.05 0.0547326)
(-0.194688 0.3 0.0457901)
(-0.192391 -0.0500015 0.0546405)
(-0.196802 -0.0500015 0.0356199)
(-0.196595 -0.05 0.0367499)
(-0.196595 0.3 0.0367499)
(-0.194688 -0.05 0.0457901)
(-0.194068 -0.0500015 0.0483493)
(-0.198082 0.3 0.0276313)
(-0.199147 0.3 0.0184537)
(-0.198082 -0.05 0.0276313)
(-0.197858 -0.0500015 0.0291951)
(-0.199338 -0.0500015 0.0162597)
(-0.199147 -0.05 0.0184537)
(-0.199787 -0.05 0.00923669)
(-0.199762 -0.0500015 0.00976273)
(-0.199787 0.3 0.00923669)
(-0.2 0.3 -3.67394e-17)
(-0.2 -0.05 -3.6637e-17)
(-0.199787 0.3 -0.00923669)
(-0.199787 -0.05 -0.00923669)
(-0.199762 -0.0500015 -0.00976273)
(-0.199147 0.3 -0.0184537)
(-0.197858 -0.0500015 -0.0291951)
(-0.198082 -0.05 -0.0276313)
(-0.198082 0.3 -0.0276313)
(-0.199147 -0.05 -0.0184537)
(-0.199338 -0.0500015 -0.0162597)
(-0.196595 0.3 -0.0367499)
(-0.194688 0.3 -0.0457901)
(-0.196595 -0.05 -0.0367499)
(-0.196802 -0.0500015 -0.0356199)
(-0.194068 -0.0500015 -0.0483493)
(-0.194688 -0.05 -0.0457901)
(-0.192365 -0.05 -0.0547326)
(-0.192391 -0.0500015 -0.0546405)
(-0.192365 0.3 -0.0547326)
(-0.189632 0.3 -0.0635583)
(-0.189632 -0.05 -0.0635583)
(-0.186494 0.3 -0.0722483)
(-0.186494 -0.05 -0.0722483)
(-0.186146 -0.0500015 -0.0731404)
(-0.182959 0.3 -0.0807842)
(-0.179033 0.3 -0.0891477)
(-0.182959 -0.05 -0.0807842)
(-0.183667 -0.0500015 -0.0791606)
(-0.178127 -0.0500015 -0.0909431)
(-0.179033 -0.05 -0.0891477)
(-0.174725 -0.05 -0.0973209)
(-0.175073 -0.0500015 -0.0966929)
(-0.174725 0.3 -0.0973209)
(-0.170043 0.3 -0.105286)
(-0.170043 -0.05 -0.105286)
(-0.164999 0.3 -0.113027)
(-0.164999 -0.05 -0.113027)
(-0.16481 -0.0500015 -0.113304)
(-0.159603 0.3 -0.120527)
(-0.152976 -0.0500015 -0.128834)
(-0.153867 -0.05 -0.127769)
(-0.153867 0.3 -0.127769)
(-0.159603 -0.05 -0.120527)
(-0.161035 -0.0500015 -0.118608)
(-0.147802 0.3 -0.134739)
(-0.141421 0.3 -0.141421)
(-0.147802 -0.05 -0.134739)
(-0.148702 -0.0500015 -0.133746)
(-0.139684 -0.0500015 -0.143137)
(-0.141421 -0.05 -0.141421)
(-0.134739 -0.05 -0.147802)
(-0.134951 -0.0500015 -0.147608)
(-0.134739 0.3 -0.147802)
(-0.127769 0.3 -0.153867)
(-0.127769 -0.05 -0.153867)
(-0.120527 0.3 -0.159603)
(-0.120527 -0.05 -0.159603)
(-0.113027 0.3 -0.164999)
(-0.119915 -0.0500015 -0.160064)
(-0.105286 0.3 -0.170043)
(-0.113027 -0.05 -0.164999)
(-0.114641 -0.0500015 -0.163882)
(-0.103735 -0.0500015 -0.170994)
(-0.105286 -0.05 -0.170043)
(-0.0973209 -0.05 -0.174725)
(-0.0981146 -0.0500015 -0.17428)
(-0.0973209 0.3 -0.174725)
(-0.0891477 0.3 -0.179033)
(-0.0891477 -0.05 -0.179033)
(-0.0807842 0.3 -0.182959)
(-0.0807842 -0.05 -0.182959)
(-0.0722483 0.3 -0.186494)
(-0.0806528 -0.0500015 -0.183017)
(-0.0624223 -0.0500015 -0.190009)
(-0.0635583 -0.05 -0.189632)
(-0.0635583 0.3 -0.189632)
(-0.0722483 -0.05 -0.186494)
(-0.0746529 -0.0500015 -0.185545)
(-0.0547326 0.3 -0.192365)
(-0.0457901 0.3 -0.194688)
(-0.0547326 -0.05 -0.192365)
(-0.0562045 -0.0500015 -0.19194)
(-0.0435969 -0.0500015 -0.19519)
(-0.0457901 -0.05 -0.194688)
(-0.0367499 -0.05 -0.196595)
(-0.0372204 -0.0500015 -0.196506)
(-0.0367499 0.3 -0.196595)
(-0.0276313 0.3 -0.198082)
(-0.0276313 -0.05 -0.198082)
(-0.0184537 0.3 -0.199147)
(-0.0184537 -0.05 -0.199147)
(-0.00923669 0.3 -0.199787)
(-0.0178815 -0.0500015 -0.199199)
(0.00162775 -0.0500015 -0.199993)
(2.54218e-17 -0.05 -0.2)
(2.44929e-17 0.3 -0.2)
(-0.00923669 -0.05 -0.199787)
(-0.0113882 -0.0500015 -0.199676)
(0.0211215 -0.0500015 -0.198882)
(0.0184537 -0.05 -0.199147)
(0.00923669 0.3 -0.199787)
(0.0184537 0.3 -0.199147)
(0.00923669 -0.05 -0.199787)
(0.00813659 -0.0500015 -0.199834)
(0.0276313 0.3 -0.198082)
(0.0367499 0.3 -0.196595)
(0.0467682 -0.0500015 -0.194455)
(0.0457901 -0.05 -0.194688)
(0.0457901 0.3 -0.194688)
(0.0367499 -0.05 -0.196595)
(0.0340169 -0.0500015 -0.197086)
(0.0547326 0.3 -0.192365)
(0.0635583 0.3 -0.189632)
(0.0547326 -0.05 -0.192365)
(0.0530729 -0.0500015 -0.19283)
(0.0655068 -0.0500015 -0.188968)
(0.0635583 -0.05 -0.189632)
(0.0722483 -0.05 -0.186494)
(0.0716229 -0.0500015 -0.186735)
(0.0722483 0.3 -0.186494)
(0.0807842 0.3 -0.182959)
(0.0807842 -0.05 -0.182959)
(0.0891477 0.3 -0.179033)
(0.0891477 -0.05 -0.179033)
(0.0973209 0.3 -0.174725)
(0.0894904 -0.0500015 -0.178862)
(0.106505 -0.0500015 -0.169283)
(0.105286 -0.05 -0.170043)
(0.105286 0.3 -0.170043)
(0.0973209 -0.05 -0.174725)
(0.0952648 -0.0500015 -0.175854)
(0.113027 0.3 -0.164999)
(0.120527 0.3 -0.159603)
(0.113027 -0.05 -0.164999)
(0.111959 -0.0500015 -0.165727)
(0.122504 -0.0500015 -0.158091)
(0.120527 -0.05 -0.159603)
(0.127769 -0.05 -0.153867)
(0.127585 -0.0500015 -0.15402)
(0.127769 0.3 -0.153867)
(0.134739 0.3 -0.147802)
(0.134739 -0.05 -0.147802)
(0.141421 0.3 -0.141421)
(0.141421 -0.05 -0.141421)
(0.141996 -0.0500015 -0.140845)
(0.147802 0.3 -0.134739)
(0.153867 0.3 -0.127769)
(0.147802 -0.05 -0.134739)
(0.146505 -0.0500015 -0.136148)
(0.155053 -0.0500015 -0.126327)
(0.153867 -0.05 -0.127769)
(0.159603 -0.05 -0.120527)
(0.159083 -0.0500015 -0.121214)
(0.159603 0.3 -0.120527)
(0.164999 0.3 -0.113027)
(0.164999 -0.05 -0.113027)
(0.170043 0.3 -0.105286)
(0.170043 -0.05 -0.105286)
(0.174725 0.3 -0.0973209)
(0.170144 -0.0500015 -0.105124)
(0.179584 -0.0500015 -0.0880317)
(0.179033 -0.05 -0.0891477)
(0.179033 0.3 -0.0891477)
(0.174725 -0.05 -0.0973209)
(0.173476 -0.0500015 -0.0995297)
(0.182959 0.3 -0.0807842)
(0.186494 0.3 -0.0722483)
(0.182959 -0.05 -0.0807842)
(0.182354 -0.0500015 -0.0821396)
(0.187312 -0.0500015 -0.0701008)
(0.186494 -0.05 -0.0722483)
(0.189632 -0.05 -0.0635583)
(0.189495 -0.0500015 -0.0639667)
(0.189632 0.3 -0.0635583)
(0.192365 0.3 -0.0547326)
(0.192365 -0.05 -0.0547326)
(0.194688 0.3 -0.0457901)
(0.194688 -0.05 -0.0457901)
(0.194829 -0.0500015 -0.045184)
(0.196595 0.3 -0.0367499)
(0.198307 -0.0500015 -0.0259707)
(0.198082 -0.05 -0.0276313)
(0.198082 0.3 -0.0276313)
(0.196595 -0.05 -0.0367499)
(0.196197 -0.0500015 -0.0388185)
(0.199147 0.3 -0.0184537)
(0.199787 0.3 -0.00923669)
(0.199147 -0.05 -0.0184537)
(0.199047 -0.0500015 -0.0195022)
(0.2 0.3 1.22465e-17)
(0.199894 -0.0500015 -0.00650992)
(0.199787 -0.05 -0.00923669)
(0.199787 0.3 0.00923669)
(0.199047 -0.0500015 0.0195022)
(0.199147 -0.05 0.0184537)
(0.199147 0.3 0.0184537)
(0.199787 -0.05 0.00923669)
(0.199894 -0.0500015 0.00650992)
(0.198082 0.3 0.0276313)
(0.196595 0.3 0.0367499)
(0.198082 -0.05 0.0276313)
(0.198307 -0.0500015 0.0259707)
(0.196197 -0.0500015 0.0388185)
(0.196595 -0.05 0.0367499)
(0.194688 -0.05 0.0457901)
(0.194829 -0.0500015 0.045184)
(0.194688 0.3 0.0457901)
(0.192365 0.3 0.0547326)
(0.192365 -0.05 0.0547326)
(0.189632 0.3 0.0635583)
(0.189632 -0.05 0.0635583)
(0.186494 0.3 0.0722483)
(0.189495 -0.0500015 0.0639667)
(0.182354 -0.0500015 0.0821396)
(0.182959 -0.05 0.0807842)
(0.182959 0.3 0.0807842)
(0.186494 -0.05 0.0722483)
(0.187312 -0.0500015 0.0701008)
(0.179033 0.3 0.0891477)
(0.174725 0.3 0.0973209)
(0.179033 -0.05 0.0891477)
(0.179584 -0.0500015 0.0880317)
(0.173476 -0.0500015 0.0995297)
(0.174725 -0.05 0.0973209)
(0.170043 -0.05 0.105286)
(0.170144 -0.0500015 0.105124)
(0.170043 0.3 0.105286)
(0.164999 0.3 0.113027)
(0.164999 -0.05 0.113027)
(0.159603 0.3 0.120527)
(0.159603 -0.05 0.120527)
(0.159083 -0.0500015 0.121214)
(0.153867 0.3 0.127769)
(0.147802 0.3 0.134739)
(0.153867 -0.05 0.127769)
(0.155053 -0.0500015 0.126327)
(0.146505 -0.0500015 0.136148)
(0.147802 -0.05 0.134739)
(0.141421 -0.05 0.141421)
(0.141996 -0.0500015 0.140845)
(0.141421 0.3 0.141421)
(0.134739 0.3 0.147802)
(0.134739 -0.05 0.147802)
(0.127769 0.3 0.153867)
(0.127769 -0.05 0.153867)
(0.120527 0.3 0.159603)
(0.127585 -0.0500015 0.15402)
(0.111959 -0.0500015 0.165727)
(0.113027 -0.05 0.164999)
(0.113027 0.3 0.164999)
(0.120527 -0.05 0.159603)
(0.122504 -0.0500015 0.158091)
(0.105286 0.3 0.170043)
(0.0973209 0.3 0.174725)
(0.105286 -0.05 0.170043)
(0.106505 -0.0500015 0.169283)
(0.0952648 -0.0500015 0.175854)
(0.0973209 -0.05 0.174725)
(0.0891477 -0.05 0.179033)
(0.0894904 -0.0500015 0.178862)
(0.0891477 0.3 0.179033)
(0.0807842 0.3 0.182959)
(0.0807842 -0.05 0.182959)
(0.0722483 0.3 0.186494)
(0.0722483 -0.05 0.186494)
(0.0635583 0.3 0.189632)
(0.0716229 -0.0500015 0.186735)
(0.0547326 0.3 0.192365)
(0.0635583 -0.05 0.189632)
(0.0655068 -0.0500015 0.188968)
(0.0530729 -0.0500015 0.19283)
(0.0547326 -0.05 0.192365)
(0.0457901 -0.05 0.194688)
(0.0467682 -0.0500015 0.194455)
(0.0457901 0.3 0.194688)
(0.0367499 0.3 0.196595)
(0.0367499 -0.05 0.196595)
(0.0340169 -0.0500015 0.197086)
(0.0276313 0.3 0.198082)
(0.0184537 0.3 0.199147)
(0.00813659 -0.0500015 0.199834)
(0.00923669 -0.05 0.199787)
(0.00923669 0.3 0.199787)
(0.0184537 -0.05 0.199147)
(0.0211215 -0.0500015 0.198882)
(-0.0113882 -0.0500015 0.199676)
(-0.00923669 -0.05 0.199787)
(-4.89859e-17 0.3 0.2)
(-8.33912e-20 -0.05 0.2)
(0.00162775 -0.0500015 0.199993)
)

// edges

535
(
(76 77)
(78 79)
(0 76)
(79 80)
(81 0)
(1 81)
(80 82)
(83 1)
(82 84)
(85 83)
(86 87)
(87 2)
(84 88)
(2 89)
(89 90)
(91 92)
(3 93)
(88 91)
(93 94)
(95 96)
(96 3)
(97 98)
(92 99)
(4 97)
(99 100)
(101 4)
(5 101)
(100 102)
(103 5)
(102 104)
(105 103)
(104 106)
(6 107)
(107 108)
(109 110)
(110 6)
(111 112)
(106 113)
(7 111)
(113 114)
(115 7)
(8 115)
(114 116)
(117 8)
(116 118)
(119 117)
(120 121)
(121 9)
(118 122)
(9 123)
(123 124)
(125 126)
(10 127)
(122 125)
(127 128)
(129 130)
(130 10)
(131 132)
(126 133)
(11 131)
(133 134)
(135 11)
(12 135)
(134 136)
(137 12)
(136 138)
(139 137)
(138 140)
(13 141)
(141 142)
(143 144)
(144 13)
(145 146)
(140 147)
(14 145)
(147 148)
(149 14)
(15 149)
(148 150)
(151 15)
(150 152)
(153 151)
(154 155)
(155 16)
(152 156)
(16 157)
(157 158)
(159 160)
(17 161)
(156 159)
(161 162)
(163 164)
(164 17)
(165 166)
(160 167)
(18 165)
(167 168)
(169 18)
(19 169)
(168 170)
(171 19)
(172 171)
(170 173)
(174 175)
(175 20)
(173 176)
(20 177)
(177 178)
(179 180)
(21 181)
(176 179)
(181 182)
(183 184)
(184 21)
(185 186)
(180 187)
(22 185)
(187 188)
(189 22)
(23 189)
(188 190)
(191 23)
(192 191)
(190 193)
(193 194)
(24 195)
(195 196)
(197 198)
(198 24)
(199 200)
(194 201)
(25 199)
(201 202)
(203 25)
(26 203)
(202 204)
(205 26)
(206 205)
(204 207)
(208 209)
(209 27)
(207 210)
(27 211)
(211 212)
(213 214)
(28 215)
(210 213)
(215 216)
(217 218)
(218 28)
(219 220)
(214 221)
(29 219)
(221 222)
(223 29)
(30 223)
(222 224)
(225 30)
(224 226)
(227 225)
(226 228)
(31 229)
(229 230)
(231 232)
(232 31)
(233 234)
(228 235)
(32 233)
(235 236)
(237 32)
(33 237)
(236 238)
(239 33)
(238 240)
(241 239)
(242 243)
(243 34)
(240 244)
(34 245)
(245 246)
(247 248)
(35 249)
(244 247)
(249 250)
(251 252)
(252 35)
(253 254)
(248 255)
(36 253)
(255 256)
(257 36)
(37 257)
(256 258)
(259 37)
(258 260)
(261 259)
(262 263)
(263 38)
(260 264)
(38 265)
(265 266)
(267 268)
(268 39)
(269 270)
(39 271)
(264 269)
(271 272)
(273 274)
(270 273)
(275 276)
(276 40)
(274 277)
(40 278)
(278 279)
(280 281)
(41 282)
(277 280)
(282 283)
(284 285)
(285 41)
(286 287)
(281 288)
(42 286)
(288 289)
(290 42)
(43 290)
(289 291)
(292 43)
(291 293)
(294 292)
(295 296)
(296 44)
(293 297)
(44 298)
(298 299)
(300 301)
(45 302)
(297 300)
(302 303)
(304 305)
(305 45)
(306 307)
(301 308)
(46 306)
(308 309)
(310 46)
(47 310)
(309 311)
(312 47)
(313 312)
(311 314)
(314 315)
(48 316)
(316 317)
(318 319)
(319 48)
(320 321)
(315 322)
(49 320)
(322 323)
(324 49)
(50 324)
(323 325)
(326 50)
(325 327)
(328 326)
(329 330)
(330 51)
(327 331)
(51 332)
(332 333)
(334 335)
(52 336)
(331 334)
(336 337)
(338 339)
(339 52)
(340 341)
(335 342)
(53 340)
(342 343)
(344 53)
(54 344)
(343 345)
(346 54)
(347 346)
(345 348)
(349 350)
(350 55)
(348 351)
(55 352)
(352 353)
(354 355)
(56 356)
(351 354)
(356 357)
(355 358)
(359 360)
(360 56)
(358 361)
(362 363)
(363 57)
(361 364)
(57 365)
(365 366)
(367 368)
(58 369)
(364 367)
(369 370)
(371 372)
(372 58)
(373 374)
(368 375)
(59 373)
(375 376)
(377 59)
(60 377)
(376 378)
(379 60)
(378 380)
(381 379)
(382 383)
(383 61)
(380 384)
(61 385)
(385 386)
(387 388)
(62 389)
(384 387)
(389 390)
(391 392)
(392 62)
(393 394)
(388 395)
(63 393)
(395 396)
(397 63)
(64 397)
(396 398)
(399 64)
(400 399)
(398 401)
(401 402)
(65 403)
(403 404)
(405 406)
(406 65)
(407 408)
(402 409)
(66 407)
(409 410)
(411 66)
(67 411)
(410 412)
(413 67)
(412 414)
(415 413)
(416 417)
(417 68)
(414 418)
(68 419)
(419 420)
(421 422)
(69 423)
(418 421)
(423 424)
(425 426)
(426 69)
(427 428)
(422 429)
(70 427)
(429 430)
(431 70)
(71 431)
(430 432)
(433 71)
(432 434)
(435 433)
(434 436)
(72 437)
(437 438)
(439 440)
(440 72)
(441 442)
(436 443)
(73 441)
(443 444)
(445 73)
(446 445)
(444 447)
(447 448)
(449 450)
(450 74)
(448 451)
(74 452)
(452 453)
(454 455)
(455 75)
(456 78)
(75 457)
(451 456)
(457 458)
(56 357)
(349 55)
(55 353)
(347 54)
(54 53)
(53 341)
(338 52)
(52 337)
(329 51)
(51 333)
(328 50)
(50 49)
(49 321)
(318 48)
(48 317)
(313 47)
(47 46)
(46 307)
(304 45)
(45 303)
(295 44)
(44 299)
(294 43)
(43 42)
(42 287)
(284 41)
(41 283)
(275 40)
(40 279)
(267 39)
(39 272)
(262 38)
(38 266)
(261 37)
(37 36)
(36 254)
(251 35)
(35 250)
(242 34)
(34 246)
(241 33)
(33 32)
(32 234)
(231 31)
(31 230)
(227 30)
(30 29)
(29 220)
(217 28)
(28 216)
(208 27)
(27 212)
(206 26)
(26 25)
(25 200)
(197 24)
(24 196)
(192 23)
(23 22)
(22 186)
(183 21)
(21 182)
(174 20)
(20 178)
(172 19)
(19 18)
(18 166)
(163 17)
(17 162)
(154 16)
(16 158)
(153 15)
(15 14)
(14 146)
(143 13)
(13 142)
(139 12)
(12 11)
(11 132)
(129 10)
(10 128)
(120 9)
(9 124)
(119 8)
(8 7)
(7 112)
(109 6)
(6 108)
(105 5)
(5 4)
(4 98)
(95 3)
(3 94)
(86 2)
(2 90)
(85 1)
(1 0)
(0 77)
(454 75)
(75 458)
(449 74)
(74 453)
(446 73)
(73 442)
(439 72)
(72 438)
(435 71)
(71 70)
(70 428)
(425 69)
(69 424)
(416 68)
(68 420)
(415 67)
(67 66)
(66 408)
(405 65)
(65 404)
(400 64)
(64 63)
(63 394)
(391 62)
(62 390)
(382 61)
(61 386)
(381 60)
(60 59)
(59 374)
(371 58)
(58 370)
(362 57)
(57 366)
(359 56)
)

// concaveStart mixedStart nonFeatureStart
0 0 76
// internalStart flatStart openStart multipleStart
402 535 535 535
// normals

804
(
(-0.090857 0.00057222 0.995864)
(-0.0182041 -0.985032 0.171409)
(-0.0692483 0 0.997599)
(0 1 0)
(-0.107035 0 0.994255)
(-0.115238 0.000139991 0.993338)
(-0 1 0)
(-0.129959 0 0.991519)
(-0.00773977 -0.998424 0.0555848)
(-0.146093 0 0.989271)
(-0.161 0.000138255 0.986954)
(0 1 0)
(-0.168913 0 0.985631)
(-0.0345493 -0.979152 0.200168)
(-0.206403 0.000112219 0.978467)
(0 1 0)
(-0.184852 0 0.982766)
(-0.277343 0 0.960771)
(-0.020692 -0.996955 0.0751777)
(-0.261682 0 0.965154)
(-0.251377 0.000151666 0.967889)
(-0 1 0)
(-0.239299 0 0.970946)
(-0.0144983 -0.998076 0.060285)
(-0.223451 0 0.974715)
(-0.339609 0.000149146 0.940567)
(0 1 0)
(-0.330353 0 0.943857)
(-0.0306279 -0.995618 0.0883524)
(-0.295806 0 0.955248)
(0 1 0)
(-0.31498 0.000531538 0.949098)
(-0.367238 0 0.930127)
(-0.0210461 -0.998272 0.0548715)
(-0.352086 0 0.935968)
(-0.403223 0.000589797 0.915101)
(-0.224366 -0.843821 0.487469)
(-0.382677 0 0.923882)
(-0 1 0)
(-0.418441 0 0.908244)
(-0.424942 0.000130426 0.905221)
(0 1 0)
(-0.439274 0 0.898353)
(-0.0254268 -0.998384 0.0508211)
(-0.453866 0 0.89107)
(-0.466297 0.000145543 0.884628)
(0 1 0)
(-0.474323 0 0.880351)
(-0.0551472 -0.993275 0.101797)
(-0.50666 9.64846e-05 0.862146)
(-0 1 0)
(-0.488641 0 0.872485)
(-0.545925 0.000152266 0.837834)
(0 1 0)
(-0.536372 0 0.843981)
(-0.0371302 -0.997566 0.0590151)
(-0.522576 0 0.852593)
(-0.56917 0 0.82222)
(-0.0372729 -0.997781 0.0551751)
(-0.555705 0 0.83138)
(-0.60118 0.000561468 0.799114)
(-0.0827049 -0.990843 0.106728)
(-0.584047 0 0.81172)
(0 1 0)
(-0.614031 0 0.789282)
(-0.6209 0.000143339 0.78389)
(-0 1 0)
(-0.632089 0 0.774896)
(-0.0359659 -0.998409 0.0434181)
(-0.644635 0 0.764491)
(-0.656449 0.000134051 0.754371)
(0 1 0)
(-0.662117 0 0.7494)
(-0.210117 -0.948397 0.237473)
(-0.690581 0.000118409 0.723255)
(0 1 0)
(-0.674192 0 0.738556)
(-0.741263 0 0.671215)
(-0.0627932 -0.996319 0.0583536)
(-0.730244 0 0.683187)
(-0.723255 0.000150298 0.690581)
(-0 1 0)
(-0.714267 0 0.699873)
(-0.0424278 -0.998213 0.0420845)
(-0.702757 0 0.71143)
(-0.78389 0.000150678 0.6209)
(0 1 0)
(-0.777456 0 0.628937)
(-0.0645642 -0.996526 0.0526033)
(-0.754371 0 0.656449)
(0 1 0)
(-0.767086 0.000517129 0.641545)
(-0.801582 0 0.597885)
(-0.0481834 -0.998164 0.0367143)
(-0.791779 0 0.610808)
(-0.824538 0.000588448 0.565807)
(-0.230901 -0.96083 0.153264)
(-0.81172 0 0.584047)
(-0 1 0)
(-0.833626 0 0.552329)
(-0.837834 0.000135207 0.545925)
(0 1 0)
(-0.846166 0 0.53292)
(-0.04799 -0.998408 0.0296505)
(-0.854718 0 0.519092)
(-0.862146 0.000142622 0.50666)
(0 1 0)
(-0.86648 0 0.499212)
(-0.122755 -0.989935 0.0704299)
(-0.884628 0.00010363 0.466297)
(-0 1 0)
(-0.874508 0 0.48501)
(-0.905221 0.000152193 0.424942)
(0 1 0)
(-0.900127 0 0.435627)
(-0.0588406 -0.997851 0.0288437)
(-0.892895 0 0.450264)
(-0.916578 0 0.399856)
(-0.0644867 -0.997496 0.0290477)
(-0.90994 0 0.414741)
(-0.931614 0.000547027 0.363449)
(-0.104584 -0.993746 0.039141)
(-0.923882 0 0.382677)
(0 1 0)
(-0.937393 0 0.348274)
(-0.940567 0.00014641 0.339609)
(-0 1 0)
(-0.945197 0 0.326502)
(-0.054181 -0.998364 0.0182889)
(-0.950383 0 0.311083)
(-0.955248 0.000129392 0.295806)
(0 1 0)
(-0.957313 0 0.289055)
(-0.672606 -0.711636 0.202916)
(-0.967889 0.0001243 0.251377)
(0 1 0)
(-0.961814 0 0.273704)
(-0.983494 0 0.180939)
(-0.094563 -0.995343 0.0187097)
(-0.980422 0 0.196907)
(-0.978467 0.000148535 0.206403)
(-0 1 0)
(-0.975612 0 0.219502)
(-0.0567764 -0.9983 0.0131673)
(-0.971911 0 0.235351)
(-0.993338 0.000151808 0.115238)
(0 1 0)
(-0.992039 0 0.125935)
(-0.0754885 -0.997098 0.00988666)
(-0.986954 0 0.161)
(0 1 0)
(-0.989852 0.000504772 0.142099)
(-0.996224 0 0.0868182)
(-0.0625548 -0.998023 0.00612934)
(-0.994683 0 0.10298)
(-0.998872 0.000575546 0.0474812)
(-0.185915 -0.982547 0.00605383)
(-0.997599 0 0.0692483)
(-0 1 0)
(-0.999512 0 0.0312305)
(-0.999733 0.00013911 0.0230973)
(0 1 0)
(-0.999967 1.16154e-20 0.00814288)
(-0.0561228 -0.998424 -0)
(-0.999967 -2.38326e-21 -0.00814288)
(-0.999733 0.00013911 -0.0230973)
(0 1 0)
(-0.999512 0 -0.0312305)
(-0.185915 -0.982547 -0.00605383)
(-0.998872 0 -0.0474796)
(-0.997599 3.28083e-05 -0.0692483)
(0 1 -0)
(-0.989853 0 -0.142098)
(-0.0754885 -0.997098 -0.00988666)
(-0.992039 -0 -0.125935)
(-0.993338 0.000151808 -0.115238)
(0 1 0)
(-0.994683 -0 -0.10298)
(-0.0625548 -0.998023 -0.00612934)
(-0.996224 -0 -0.0868182)
(-0.978467 0.000148535 -0.206403)
(0 1 -0)
(-0.980422 -0 -0.196907)
(-0.094563 -0.995343 -0.0187097)
(-0.986954 -0 -0.161)
(0 1 0)
(-0.983494 0.000534144 -0.180938)
(-0.971911 -0 -0.235351)
(-0.0567764 -0.9983 -0.0131673)
(-0.975612 -0 -0.219502)
(-0.961816 0.000610519 -0.273695)
(-0.672606 -0.711636 -0.202916)
(-0.967889 0 -0.251377)
(0 1 0)
(-0.957313 0 -0.289055)
(-0.955248 0.000129392 -0.295806)
(0 1 0)
(-0.950383 0 -0.311083)
(-0.054181 -0.998364 -0.0182889)
(-0.945197 0 -0.326502)
(-0.940567 0.00014641 -0.339609)
(0 1 -0)
(-0.937393 0 -0.348274)
(-0.104584 -0.993746 -0.039141)
(-0.931614 0 -0.363448)
(-0.923882 5.66934e-05 -0.382677)
(0 1 0)
(-0.905221 0.000152193 -0.424942)
(0 1 0)
(-0.90994 -0 -0.414741)
(-0.0644867 -0.997496 -0.0290477)
(-0.916578 -0 -0.399856)
(-0.892895 -0 -0.450264)
(-0.0588406 -0.997851 -0.0288437)
(-0.900127 -0 -0.435627)
(-0.874509 0.000561534 -0.485009)
(-0.122755 -0.989935 -0.0704299)
(-0.884628 0 -0.466297)
(0 1 -0)
(-0.86648 0 -0.499212)
(-0.862146 0.000142622 -0.50666)
(0 1 0)
(-0.854718 0 -0.519092)
(-0.04799 -0.998408 -0.0296505)
(-0.846166 0 -0.53292)
(-0.837834 0.000135207 -0.545925)
(0 1 0)
(-0.833626 0 -0.552329)
(-0.230901 -0.96083 -0.153264)
(-0.824539 0 -0.565805)
(-0.81172 2.13453e-05 -0.584047)
(0 1 -0)
(-0.767086 0 -0.641544)
(-0.0645642 -0.996526 -0.0526033)
(-0.777456 -0 -0.628937)
(-0.78389 0.000150678 -0.6209)
(0 1 0)
(-0.791779 -0 -0.610808)
(-0.0481834 -0.998164 -0.0367143)
(-0.801582 -0 -0.597885)
(-0.723255 0.000150298 -0.690581)
(0 1 -0)
(-0.730244 -0 -0.683187)
(-0.0627932 -0.996319 -0.0583536)
(-0.754371 -0 -0.656449)
(0 1 0)
(-0.741263 0.000521175 -0.671215)
(-0.702757 -0 -0.71143)
(-0.0424278 -0.998213 -0.0420845)
(-0.714267 -0 -0.699873)
(-0.674194 0.000591759 -0.738554)
(-0.210117 -0.948397 -0.237473)
(-0.690581 0 -0.723255)
(0 1 0)
(-0.662117 0 -0.7494)
(-0.656449 0.000134051 -0.754371)
(0 1 0)
(-0.644635 0 -0.764491)
(-0.0359659 -0.998409 -0.0434181)
(-0.632089 0 -0.774896)
(-0.6209 0.000143339 -0.78389)
(0 1 -0)
(-0.614031 0 -0.789282)
(-0.0827049 -0.990843 -0.106728)
(-0.584047 0.000102113 -0.81172)
(0 1 0)
(-0.601181 -0 -0.799113)
(-0.545925 0.000152266 -0.837834)
(0 1 0)
(-0.555705 -0 -0.83138)
(-0.0372729 -0.997781 -0.0551751)
(-0.56917 -0 -0.82222)
(-0.522576 -0 -0.852593)
(-0.0371302 -0.997566 -0.0590151)
(-0.536372 -0 -0.843981)
(-0.488641 0.000548353 -0.872484)
(-0.0551472 -0.993275 -0.101797)
(-0.50666 0 -0.862146)
(0 1 -0)
(-0.474323 0 -0.880351)
(-0.466297 0.000145543 -0.884628)
(0 1 0)
(-0.453866 0 -0.89107)
(-0.0254268 -0.998384 -0.0508211)
(-0.439274 0 -0.898353)
(-0.424942 0.000130426 -0.905221)
(0 1 0)
(-0.418441 0 -0.908244)
(-0.224366 -0.843821 -0.487469)
(-0.382677 0.000123006 -0.923882)
(0 1 -0)
(-0.403229 -0 -0.915099)
(-0.314981 0 -0.949098)
(-0.0306279 -0.995618 -0.0883524)
(-0.330353 -0 -0.943857)
(-0.339609 0.000149146 -0.940567)
(0 1 0)
(-0.352086 -0 -0.935968)
(-0.0210461 -0.998272 -0.0548715)
(-0.367238 -0 -0.930127)
(-0.251377 0.000151666 -0.967889)
(0 1 -0)
(-0.261682 -0 -0.965154)
(-0.020692 -0.996955 -0.0751777)
(-0.295806 -0 -0.955248)
(0 1 0)
(-0.277343 0.000508676 -0.960771)
(-0.223451 -0 -0.974715)
(-0.0144983 -0.998076 -0.060285)
(-0.239299 -0 -0.970946)
(-0.184854 0.000580031 -0.982766)
(-0.0345493 -0.979152 -0.200168)
(-0.206403 0 -0.978467)
(0 1 0)
(-0.168913 0 -0.985631)
(-0.161 0.000138255 -0.986954)
(0 1 0)
(-0.146093 0 -0.989271)
(-0.00773977 -0.998424 -0.0555848)
(-0.129959 0 -0.991519)
(-0.115238 0.000139991 -0.993338)
(0 1 -0)
(-0.107035 0 -0.994255)
(-0.0182041 -0.985032 -0.171409)
(-0.0692483 0.000109007 -0.997599)
(0 1 0)
(-0.0908585 -0 -0.995864)
(0.00405539 8.71149e-21 -0.999992)
(-0.000609341 -0.997195 -0.0748471)
(-0.0122061 -3.23946e-20 -0.999926)
(-0.0230973 0.000151974 -0.999733)
(0 1 0)
(-0.0353017 -0 -0.999377)
(-0.0025775 -0.997991 -0.0632985)
(-0.0515707 -0 -0.998669)
(0.098922 0 -0.995095)
(0.00518966 -0.998314 -0.0578139)
(0.0827388 0 -0.996571)
(0.0692483 0.000148047 -0.997599)
(0 1 0)
(0.0596898 0 -0.998217)
(0.00566148 -0.995044 -0.099271)
(0.0230973 0 -0.999733)
(0 1 0)
(0.0434116 0.000536519 -0.999057)
(0.161 0.000128258 -0.986954)
(0 1 0)
(0.115238 0 -0.993338)
(0 1 0)
(0.231363 0 -0.972868)
(0.0233841 -0.994229 -0.104698)
(0.215528 0 -0.976498)
(0.206403 0.000146844 -0.978467)
(0 1 0)
(0.192917 0 -0.981215)
(0.0106904 -0.998349 -0.0564387)
(0.176935 0 -0.984223)
(0.295806 0.000152427 -0.955248)
(0 1 0)
(0.285142 0 -0.958485)
(0.0202519 -0.9974 -0.069164)
(0.251377 0 -0.967889)
(0 1 0)
(0.269507 0.000495679 -0.962998)
(0.322645 0 -0.94652)
(0.0202992 -0.997883 -0.0617889)
(0.30723 0 -0.951635)
(0.359708 0.000566268 -0.933065)
(0.0563313 -0.988546 -0.14001)
(0.339609 0 -0.940567)
(0 1 0)
(0.374808 0 -0.927102)
(0.382677 0.000141869 -0.923882)
(0 1 0)
(0.396132 0 -0.918194)
(0.0226705 -0.998419 -0.051443)
(0.411036 0 -0.911619)
(0.424942 0.000136089 -0.905221)
(0 1 0)
(0.431965 0 -0.90189)
(0.105823 -0.969652 -0.2204)
(0.466297 0.00011552 -0.884628)
(0 1 0)
(0.446692 0 -0.894688)
(0.529443 0 -0.848345)
(0.0423937 -0.996654 -0.0698819)
(0.515604 0 -0.856827)
(0.50666 0.00015087 -0.862146)
(0 1 0)
(0.495689 0 -0.8685)
(0.0298448 -0.998148 -0.0530116)
(0.481474 0 -0.87646)
(0.584047 0.000149842 -0.81172)
(0 1 0)
(0.575859 0 -0.817549)
(0.0504723 -0.996116 -0.0721496)
(0.545925 0 -0.837834)
(0 1 0)
(0.56248 0.000525022 -0.826811)
(0.60759 0 -0.794251)
(0.0356364 -0.998232 -0.0475678)
(0.594583 0 -0.804034)
(0.638245 0.000589299 -0.769833)
(0.237595 -0.930882 -0.2775)
(0.6209 0 -0.78389)
(0 1 0)
(0.650837 0 -0.759217)
(0.656449 0.000132863 -0.754371)
(0 1 0)
(0.668187 0 -0.743993)
(0.0381872 -0.998397 -0.0417695)
(0.680208 0 -0.73302)
(0.690581 0.000144196 -0.723255)
(0 1 0)
(0.696961 0 -0.717109)
(0.0888298 -0.991879 -0.0910255)
(0.70857 0 -0.705641)
(0.723255 4.89097e-05 -0.690581)
(0 1 0)
(0.754371 0.000152325 -0.656449)
(0 1 0)
(0.746705 0 -0.665156)
(0.0502914 -0.99771 -0.0452322)
(0.735791 0 -0.677208)
(0.772305 0 -0.635252)
(0.0524288 -0.997648 -0.0441557)
(0.761857 0 -0.647745)
(0.796732 0.000553316 -0.604333)
(0.0980551 -0.992557 -0.0722219)
(0.78389 0 -0.6209)
(0 1 0)
(0.806443 0 -0.591311)
(0.81172 0.000144916 -0.584047)
(0 1 0)
(0.819889 0 -0.572522)
(0.0467647 -0.998388 -0.0321501)
(0.8291 0 -0.559101)
(0.837834 0.000131902 -0.545925)
(0 1 0)