/*--------------------------------*- C++ -*----------------------------------*\
| =========                 |                                                 |
| \\      /  F ield         | OpenFOAM: The Open Source CFD Toolbox           |
|  \\    /   O peration     | Version:  2312                                  |
|   \\  /    A nd           | Website:  www.openfoam.com                      |
|    \\/     M anipulation  |                                                 |
\*---------------------------------------------------------------------------*/
FoamFile
{
    version     2.0;
    format      ascii;
    arch        "LSB;label=32;scalar=64";
    class       featureEdgeMesh;
    location    "constant/triSurface";
    object      baffles.eMesh;
}
// * * * * * * * * * * * * * * * * * * * * * * * * * * * * * * * * * * * * * //


// points:

24
(
(-0.0993301 -0.05 0.162045)
(-0.0906699 -0.05 0.167045)
(-0.0993301 0.25 0.162045)
(-0.0906699 0.25 0.167045)
(-0.0706699 -0.05 0.132404)
(-0.0706699 0.25 0.132404)
(-0.0793301 -0.05 0.127404)
(-0.0793301 0.25 0.127404)
(0.19 -0.05 0.005)
(0.19 -0.05 -0.005)
(0.19 0.25 0.005)
(0.19 0.25 -0.005)
(0.15 -0.05 -0.005)
(0.15 0.25 -0.005)
(0.15 -0.05 0.005)
(0.15 0.25 0.005)
(-0.0906699 -0.05 -0.167045)
(-0.0993301 -0.05 -0.162045)
(-0.0906699 0.25 -0.167045)
(-0.0993301 0.25 -0.162045)
(-0.0793301 -0.05 -0.127404)
(-0.0793301 0.25 -0.127404)
(-0.0706699 -0.05 -0.132404)
(-0.0706699 0.25 -0.132404)
)


// edges:

36
(
(2 0)
(0 1)
(1 3)
(3 2)
(1 4)
(4 5)
(5 3)
(4 6)
(6 7)
(7 5)
(6 0)
(2 7)
(10 8)
(8 9)
(9 11)
(11 10)
(9 12)
(12 13)
(13 11)
(12 14)
(14 15)
(15 13)
(14 8)
(10 15)
(18 16)
(16 17)
(17 19)
(19 18)
(17 20)
(20 21)
(21 19)
(20 22)
(22 23)
(23 21)
(22 16)
(18 23)
)

// * * * * * * * * * * * * * * * * * * * * * * * * * * * * * * * * * * * * * //


// ************************************************************************* //
