/*--------------------------------*- C++ -*----------------------------------*\
| =========                 |                                                 |
| \\      /  F ield         | OpenFOAM: The Open Source CFD Toolbox           |
|  \\    /   O peration     | Version:  2312                                  |
|   \\  /    A nd           | Website:  www.openfoam.com                      |
|    \\/     M anipulation  |                                                 |
\*---------------------------------------------------------------------------*/
FoamFile
{
    version     2.0;
    format      ascii;
    arch        "LSB;label=32;scalar=64";
    class       featureEdgeMesh;
    location    "constant/triSurface";
    object      impeller.eMesh;
}
// * * * * * * * * * * * * * * * * * * * * * * * * * * * * * * * * * * * * * //


// points:

120
(
(0.005 0.03 0.025)
(0.005 -0.03 0.025)
(0.005 0.03 0.105)
(0.005 -0.03 0.105)
(0.025 -0.03 0.005)
(0.025 0.03 0.005)
(0.105 -0.03 0.005)
(0.105 0.03 0.005)
(-0.005 0.03 0.025)
(-0.005 -0.03 0.025)
(-0.005 0.03 0.105)
(-0.005 -0.03 0.105)
(-0.105 -0.03 0.005)
(-0.025 -0.03 0.005)
(-0.105 0.03 0.005)
(-0.025 0.03 0.005)
(-0.025 0.03 -0.005)
(-0.105 -0.03 -0.005)
(-0.025 -0.03 -0.005)
(-0.105 0.03 -0.005)
(-0.005 0.03 -0.105)
(-0.005 0.03 -0.025)
(-0.005 -0.03 -0.105)
(-0.005 -0.03 -0.025)
(0.005 0.03 -0.025)
(0.005 0.03 -0.105)
(0.005 -0.03 -0.105)
(0.005 -0.03 -0.025)
(0.025 -0.03 -0.005)
(0.025 0.03 -0.005)
(0.105 -0.03 -0.005)
(0.105 0.03 -0.005)
(0.0396863 0.005 0.005)
(0.0396863 -0.005 0.005)
(0.005 0.005 0.0396863)
(0.005 -0.005 0.0396863)
(-0.025 0.005 -0.005)
(-0.0396863 0.005 -0.005)
(-0.005 0.005 -0.025)
(-0.005 0.005 -0.0396863)
(-0.025 0.005 0.005)
(-0.0396863 0.005 0.005)
(0.005 0.005 -0.025)
(0.005 0.005 -0.0396863)
(0.025 0.005 -0.005)
(-0.005 0.005 0.025)
(0.005 0.005 0.025)
(0.025 0.005 0.005)
(0.0396863 0.005 -0.005)
(-0.005 0.005 0.0396863)
(0.005 -0.005 0.025)
(-0.025 -0.005 -0.005)
(-0.0396863 -0.005 -0.005)
(-0.005 -0.005 -0.025)
(-0.005 -0.005 -0.0396863)
(0.005 -0.005 -0.025)
(0.005 -0.005 -0.0396863)
(-0.0396863 -0.005 0.005)
(-0.025 -0.005 0.005)
(0.025 -0.005 -0.005)
(-0.005 -0.005 0.025)
(0.025 -0.005 0.005)
(0.0396863 -0.005 -0.005)
(-0.005 -0.005 0.0396863)
(0.0383258 0.005 0.0114513)
(0.0383258 -0.005 0.0114513)
(0.0359241 -0.005 0.0175915)
(0.0359241 0.005 0.0175915)
(0.0325463 -0.005 0.0232538)
(0.0325463 0.005 0.0232538)
(0.0282843 -0.005 0.0282843)
(0.0282843 0.005 0.0282843)
(0.0232538 -0.005 0.0325463)
(0.0232538 0.005 0.0325463)
(0.0175915 -0.005 0.0359241)
(0.0175915 0.005 0.0359241)
(0.0114513 -0.005 0.0383258)
(0.0114513 0.005 0.0383258)
(-0.0383258 0.005 -0.0114513)
(-0.0359241 0.005 -0.0175915)
(-0.0325463 0.005 -0.0232538)
(-0.0282843 0.005 -0.0282843)
(-0.0232538 0.005 -0.0325463)
(-0.0175915 0.005 -0.0359241)
(-0.0114513 0.005 -0.0383258)
(-0.0383258 0.005 0.0114513)
(0.0114513 0.005 -0.0383258)
(0.0175915 0.005 -0.0359241)
(-0.0359241 0.005 0.0175915)
(0.0232538 0.005 -0.0325463)
(-0.0325463 0.005 0.0232538)
(0.0282843 0.005 -0.0282843)
(-0.0282843 0.005 0.0282843)
(0.0325463 0.005 -0.0232538)
(0.0359241 0.005 -0.0175915)
(-0.0232538 0.005 0.0325463)
(-0.0175915 0.005 0.0359241)
(0.0383258 0.005 -0.0114513)
(-0.0114513 0.005 0.0383258)
(-0.0383258 -0.005 -0.0114513)
(-0.0359241 -0.005 -0.0175915)
(-0.0325463 -0.005 -0.0232538)
(-0.0282843 -0.005 -0.0282843)
(-0.0232538 -0.005 -0.0325463)
(-0.0175915 -0.005 -0.0359241)
(-0.0114513 -0.005 -0.0383258)
(0.0114513 -0.005 -0.0383258)
(-0.0383258 -0.005 0.0114513)
(0.0175915 -0.005 -0.0359241)
(-0.0359241 -0.005 0.0175915)
(0.0232538 -0.005 -0.0325463)
(-0.0325463 -0.005 0.0232538)
(0.0282843 -0.005 -0.0282843)
(-0.0282843 -0.005 0.0282843)
(0.0325463 -0.005 -0.0232538)
(0.0359241 -0.005 -0.0175915)
(-0.0175915 -0.005 0.0359241)
(-0.0232538 -0.005 0.0325463)
(0.0383258 -0.005 -0.0114513)
(-0.0114513 -0.005 0.0383258)
)


// edges:

152
(
(32 64)
(65 33)
(66 65)
(64 67)
(68 66)
(67 69)
(70 68)
(69 71)
(72 70)
(71 73)
(74 72)
(73 75)
(76 74)
(75 77)
(35 76)
(77 34)
(78 37)
(79 78)
(80 79)
(81 80)
(82 81)
(83 82)
(84 83)
(39 84)
(41 85)
(86 43)
(87 86)
(85 88)
(89 87)
(88 90)
(91 89)
(90 92)
(93 91)
(94 93)
(95 96)
(92 95)
(97 94)
(96 98)
(48 97)
(98 49)
(46 0)
(1 50)
(0 2)
(3 1)
(2 3)
(52 99)
(99 100)
(100 101)
(101 102)
(102 103)
(103 104)
(104 105)
(105 54)
(56 106)
(107 57)
(106 108)
(109 107)
(108 110)
(111 109)
(110 112)
(113 111)
(112 114)
(114 115)
(116 117)
(117 113)
(115 118)
(119 116)
(118 62)
(63 119)
(61 4)
(5 47)
(4 6)
(7 5)
(6 7)
(45 8)
(8 0)
(60 9)
(10 8)
(9 11)
(11 10)
(12 13)
(14 12)
(13 58)
(40 15)
(15 14)
(36 16)
(16 15)
(18 17)
(17 19)
(51 18)
(19 16)
(21 20)
(20 22)
(38 21)
(23 53)
(22 23)
(42 24)
(24 21)
(25 24)
(26 25)
(55 27)
(27 26)
(28 59)
(44 29)
(30 28)
(29 31)
(31 30)
(5 29)
(2 10)
(11 3)
(1 9)
(13 18)
(23 27)
(28 4)
(31 7)
(6 30)
(19 14)
(12 17)
(22 26)
(25 20)
(33 32)
(34 35)
(37 36)
(38 39)
(40 41)
(43 42)
(47 44)
(42 38)
(36 40)
(45 46)
(44 48)
(49 45)
(46 34)
(32 47)
(50 35)
(51 52)
(54 53)
(55 56)
(57 58)
(59 61)
(53 55)
(58 51)
(50 60)
(62 59)
(60 63)
(61 33)
(49 63)
(41 57)
(37 52)
(39 54)
(43 56)
(48 62)
)

// * * * * * * * * * * * * * * * * * * * * * * * * * * * * * * * * * * * * * //


// ************************************************************************* //
