/*--------------------------------*- C++ -*----------------------------------*\
| =========                 |                                                 |
| \\      /  F ield         | OpenFOAM: The Open Source CFD Toolbox           |
|  \\    /   O peration     | Version:  2312                                  |
|   \\  /    A nd           | Website:  www.openfoam.com                      |
|    \\/     M anipulation  |                                                 |
\*---------------------------------------------------------------------------*/
FoamFile
{
    version     2.0;
    format      ascii;
    arch        "LSB;label=32;scalar=64";
    class       featureEdgeMesh;
    location    "constant/triSurface";
    object      vessel.eMesh;
}
// * * * * * * * * * * * * * * * * * * * * * * * * * * * * * * * * * * * * * //


// points:

45
(
(0.209488 0.5 0.0146489)
(0.209488 0.5 -0.0146489)
(0.205411 0.5 -0.0436615)
(-0.21 0.5 0)
(-0.207956 0.5 0.0292264)
(-0.201865 0.5 0.0578838)
(-0.191845 0.5 0.0854147)
(-0.17809 0.5 0.111283)
(-0.160869 0.5 0.134985)
(-0.140517 0.5 0.15606)
(-0.117431 0.5 0.174098)
(-0.0920579 0.5 0.188747)
(-0.0648936 0.5 0.199722)
(-0.0364661 0.5 0.20681)
(-0.00732889 0.5 0.209872)
(0.021951 0.5 0.20885)
(0.0508036 0.5 0.203762)
(0.0786674 0.5 0.194709)
(0.105 0.5 0.181865)
(0.129289 0.5 0.165482)
(0.151061 0.5 0.145878)
(0.169894 0.5 0.123435)
(0.185419 0.5 0.098589)
(0.197335 0.5 0.0718242)
(0.205411 0.5 0.0436615)
(0.197335 0.5 -0.0718242)
(0.185419 0.5 -0.098589)
(0.169894 0.5 -0.123435)
(0.151061 0.5 -0.145878)
(0.129289 0.5 -0.165482)
(0.105 0.5 -0.181865)
(0.0786674 0.5 -0.194709)
(0.0508036 0.5 -0.203762)
(0.021951 0.5 -0.20885)
(-0.00732889 0.5 -0.209872)
(-0.0364661 0.5 -0.20681)
(-0.0648936 0.5 -0.199722)
(-0.0920579 0.5 -0.188747)
(-0.117431 0.5 -0.174098)
(-0.140517 0.5 -0.15606)
(-0.160869 0.5 -0.134985)
(-0.17809 0.5 -0.111283)
(-0.191845 0.5 -0.0854147)
(-0.201865 0.5 -0.0578838)
(-0.207956 0.5 -0.0292264)
)


// edges:

45
(
(0 1)
(1 2)
(3 4)
(4 5)
(5 6)
(6 7)
(7 8)
(8 9)
(9 10)
(10 11)
(11 12)
(12 13)
(13 14)
(14 15)
(15 16)
(16 17)
(17 18)
(18 19)
(19 20)
(20 21)
(21 22)
(22 23)
(23 24)
(24 0)
(2 25)
(25 26)
(26 27)
(27 28)
(28 29)
(29 30)
(30 31)
(31 32)
(32 33)
(33 34)
(34 35)
(35 36)
(36 37)
(37 38)
(38 39)
(39 40)
(40 41)
(41 42)
(42 43)
(43 44)
(44 3)
)

// * * * * * * * * * * * * * * * * * * * * * * * * * * * * * * * * * * * * * //


// ************************************************************************* //
