/*--------------------------------*- C++ -*----------------------------------*\
  =========                 |
  \\      /  F ield         | OpenFOAM: The Open Source CFD Toolbox
   \\    /   O peration     | Website:  https://openfoam.org
    \\  /    A nd           | Version:  7  
     \\/     M anipulation  |
\*---------------------------------------------------------------------------*/
FoamFile
{
    version     2.0;
    format      ascii;
    class       dictionary;
    location    "constant";
    object      fvOptions;
}
// * * * * * * * * * * * * * * * * * * * * * * * * * * * * * * * * * * * * * //

injector1
{
    timeStart       0.0;
    duration        30;
    selectionMode   cellSet;
    cellSet         injection1;
}

options
{
    massSource1
    {
        type            scalarSemiImplicitSource;

        $injector1;

        volumeMode      absolute;
        injectionRateSuSp
        {
            thermo:rho.air     (3.0e-4 0); // kg/s
        }
    }

    momentumSource1
    {
        type            vectorSemiImplicitSource;

        $injector1;

        volumeMode      absolute;
        injectionRateSuSp
        {
            U.air           ((0 -1.0e-6 0) 0); // kg*m/s^2
        }
    }

    energySource1
    {
        type            scalarSemiImplicitSource;

        $injector1;

        volumeMode      absolute;
        injectionRateSuSp
        {
            e.air      (90 0); // kg*m^2/s^3
        }
    }
}


// ************************************************************************* //
