/*--------------------------------*- C++ -*----------------------------------*\
| =========                 |                                                 |
| \\      /  F ield         | OpenFOAM: The Open Source CFD Toolbox           |
|  \\    /   O peration     | Version:  2312                                  |
|   \\  /    A nd           | Website:  www.openfoam.com                      |
|    \\/     M anipulation  |                                                 |
\*---------------------------------------------------------------------------*/
FoamFile
{
    version     2.0;
    format      ascii;
    arch        "LSB;label=32;scalar=64";
    class       extendedFeatureEdgeMesh;
    location    "constant/extendedFeatureEdgeMesh";
    object      baffles.extendedFeatureEdgeMesh;
}
// * * * * * * * * * * * * * * * * * * * * * * * * * * * * * * * * * * * * * //

// points

24
(
(-0.0993301 -0.05 0.162045)
(-0.0906699 -0.05 0.167045)
(-0.0993301 0.25 0.162045)
(-0.0906699 0.25 0.167045)
(-0.0706699 -0.05 0.132404)
(-0.0706699 0.25 0.132404)
(-0.0793301 -0.05 0.127404)
(-0.0793301 0.25 0.127404)
(0.19 -0.05 0.005)
(0.19 -0.05 -0.005)
(0.19 0.25 0.005)
(0.19 0.25 -0.005)
(0.15 -0.05 -0.005)
(0.15 0.25 -0.005)
(0.15 -0.05 0.005)
(0.15 0.25 0.005)
(-0.0906699 -0.05 -0.167045)
(-0.0993301 -0.05 -0.162045)
(-0.0906699 0.25 -0.167045)
(-0.0993301 0.25 -0.162045)
(-0.0793301 -0.05 -0.127404)
(-0.0793301 0.25 -0.127404)
(-0.0706699 -0.05 -0.132404)
(-0.0706699 0.25 -0.132404)
)

// edges

36
(
(2 0)
(0 1)
(1 3)
(3 2)
(1 4)
(4 5)
(5 3)
(4 6)
(6 7)
(7 5)
(6 0)
(2 7)
(10 8)
(8 9)
(9 11)
(11 10)
(9 12)
(12 13)
(13 11)
(12 14)
(14 15)
(15 13)
(14 8)
(10 15)
(18 16)
(16 17)
(17 19)
(19 18)
(17 20)
(20 21)
(21 19)
(20 22)
(22 23)
(23 21)
(22 16)
(18 23)
)

// concaveStart mixedStart nonFeatureStart
24 24 24
// internalStart flatStart openStart multipleStart
36 36 36 36
// normals

36
(
(-0.500001 0 0.866025)
(-0.866025 0 -0.5)
(0 -1 0)
(-0.500001 0 0.866025)
(0.866026 -0 0.5)
(0 1 0)
(0.866026 0 0.5)
(0.5 0 -0.866025)
(-0 -1 0)
(0.5 0 -0.866025)
(-0.866025 0 -0.5)
(0 1 0)
(1 -0 0)
(-0 0 1)
(0 -1 0)
(1 0 0)
(0 0 -1)
(0 1 0)
(0 -1 0)
(-0 0 -1)
(-1 0 0)
(0 1 0)
(-1 0 0)
(0 0 1)
(-0.500001 0 -0.866025)
(0.866026 0 -0.5)
(0 -1 0)
(-0.500001 0 -0.866025)
(-0.866025 0 0.5)
(0 1 0)
(0 -1 0)
(-0.866025 0 0.5)
(0.5 -0 0.866025)
(0 1 0)
(0.5 0 0.866025)
(0.866026 0 -0.5)
)

// normal volume types

36
(
0
0
0
0
0
0
0
0
0
0
0
0
0
0
0
0
0
0
0
0
0
0
0
0
0
0
0
0
0
0
0
0
0
0
0
0
)

// normalDirections

36
(
2(1 -1)
2(1 -1)
2(1 -1)
2(1 -1)
2(1 -1)
2(1 -1)
2(1 -1)
2(1 -1)
2(1 -1)
2(1 -1)
2(1 -1)
2(1 -1)
2(1 -1)
2(1 -1)
2(1 -1)
2(1 -1)
2(1 -1)
2(1 -1)
2(1 -1)
2(1 -1)
2(1 -1)
2(1 -1)
2(1 -1)
2(1 -1)
2(1 -1)
2(1 -1)
2(1 -1)
2(1 -1)
2(1 -1)
2(1 -1)
2(1 -1)
2(1 -1)
2(1 -1)
2(1 -1)
2(1 -1)
2(1 -1)
)

// edgeNormals

36
(
2(0 1)
2(0 2)
2(3 4)
2(3 5)
2(4 2)
2(6 7)
2(6 5)
2(7 8)
2(9 10)
2(9 11)
2(10 8)
2(1 11)
2(12 13)
2(12 14)
2(15 16)
2(15 17)
2(16 18)
2(19 20)
2(19 21)
2(20 18)
2(22 23)
2(22 21)
2(23 14)
2(13 17)
2(24 25)
2(24 26)
2(27 28)
2(27 29)
2(28 30)
2(31 32)
2(31 33)
2(32 30)
2(34 35)
2(34 33)
2(35 26)
2(25 29)
)

// featurePointNormals

24
(
3(0 1 2)
3(0 2 4)
3(0 1 5)
3(3 4 5)
3(4 2 7)
3(6 7 5)
3(7 8 10)
3(9 10 11)
3(12 13 14)
3(12 14 16)
3(12 13 17)
3(15 16 17)
3(16 18 20)
3(19 20 21)
3(20 18 23)
3(22 23 21)
3(24 25 26)
3(24 26 28)
3(24 25 29)
3(27 28 29)
3(28 30 32)
3(31 32 33)
3(32 30 35)
3(34 35 33)
)

// featurePointEdges

24
(
3(0 10 1)
3(2 4 1)
3(3 11 0)
3(2 6 3)
3(5 7 4)
3(5 9 6)
3(8 10 7)
3(8 11 9)
3(12 22 13)
3(14 16 13)
3(15 23 12)
3(14 18 15)
3(17 19 16)
3(17 21 18)
3(20 22 19)
3(20 23 21)
3(24 34 25)
3(26 28 25)
3(27 35 24)
3(26 30 27)
3(29 31 28)
3(29 33 30)
3(32 34 31)
3(32 35 33)
)

// regionEdges
0()


// ************************************************************************* //
