/*--------------------------------*- C++ -*----------------------------------*\
| =========                 |                                                 |
| \\      /  F ield         | OpenFOAM: The Open Source CFD Toolbox           |
|  \\    /   O peration     | Version:  2312                                  |
|   \\  /    A nd           | Website:  www.openfoam.com                      |
|    \\/     M anipulation  |                                                 |
\*---------------------------------------------------------------------------*/
FoamFile
{
    version     2.0;
    format      ascii;
    arch        "LSB;label=32;scalar=64";
    class       extendedFeatureEdgeMesh;
    location    "constant/extendedFeatureEdgeMesh";
    object      impeller.extendedFeatureEdgeMesh;
}
// * * * * * * * * * * * * * * * * * * * * * * * * * * * * * * * * * * * * * //

// points

120
(
(0.005 0.03 0.025)
(0.005 -0.03 0.025)
(0.005 0.03 0.105)
(0.005 -0.03 0.105)
(0.025 -0.03 0.005)
(0.025 0.03 0.005)
(0.105 -0.03 0.005)
(0.105 0.03 0.005)
(-0.005 0.03 0.025)
(-0.005 -0.03 0.025)
(-0.005 0.03 0.105)
(-0.005 -0.03 0.105)
(-0.105 -0.03 0.005)
(-0.025 -0.03 0.005)
(-0.105 0.03 0.005)
(-0.025 0.03 0.005)
(-0.025 0.03 -0.005)
(-0.105 -0.03 -0.005)
(-0.025 -0.03 -0.005)
(-0.105 0.03 -0.005)
(-0.005 0.03 -0.105)
(-0.005 0.03 -0.025)
(-0.005 -0.03 -0.105)
(-0.005 -0.03 -0.025)
(0.005 0.03 -0.025)
(0.005 0.03 -0.105)
(0.005 -0.03 -0.105)
(0.005 -0.03 -0.025)
(0.025 -0.03 -0.005)
(0.025 0.03 -0.005)
(0.105 -0.03 -0.005)
(0.105 0.03 -0.005)
(0.0396863 0.005 0.005)
(0.0396863 -0.005 0.005)
(0.005 0.005 0.0396863)
(0.005 -0.005 0.0396863)
(-0.025 0.005 -0.005)
(-0.0396863 0.005 -0.005)
(-0.005 0.005 -0.025)
(-0.005 0.005 -0.0396863)
(-0.025 0.005 0.005)
(-0.0396863 0.005 0.005)
(0.005 0.005 -0.025)
(0.005 0.005 -0.0396863)
(0.025 0.005 -0.005)
(-0.005 0.005 0.025)
(0.005 0.005 0.025)
(0.025 0.005 0.005)
(0.0396863 0.005 -0.005)
(-0.005 0.005 0.0396863)
(0.005 -0.005 0.025)
(-0.025 -0.005 -0.005)
(-0.0396863 -0.005 -0.005)
(-0.005 -0.005 -0.025)
(-0.005 -0.005 -0.0396863)
(0.005 -0.005 -0.025)
(0.005 -0.005 -0.0396863)
(-0.0396863 -0.005 0.005)
(-0.025 -0.005 0.005)
(0.025 -0.005 -0.005)
(-0.005 -0.005 0.025)
(0.025 -0.005 0.005)
(0.0396863 -0.005 -0.005)
(-0.005 -0.005 0.0396863)
(0.0383258 0.005 0.0114513)
(0.0383258 -0.005 0.0114513)
(0.0359241 -0.005 0.0175915)
(0.0359241 0.005 0.0175915)
(0.0325463 -0.005 0.0232538)
(0.0325463 0.005 0.0232538)
(0.0282843 -0.005 0.0282843)
(0.0282843 0.005 0.0282843)
(0.0232538 -0.005 0.0325463)
(0.0232538 0.005 0.0325463)
(0.0175915 -0.005 0.0359241)
(0.0175915 0.005 0.0359241)
(0.0114513 -0.005 0.0383258)
(0.0114513 0.005 0.0383258)
(-0.0383258 0.005 -0.0114513)
(-0.0359241 0.005 -0.0175915)
(-0.0325463 0.005 -0.0232538)
(-0.0282843 0.005 -0.0282843)
(-0.0232538 0.005 -0.0325463)
(-0.0175915 0.005 -0.0359241)
(-0.0114513 0.005 -0.0383258)
(-0.0383258 0.005 0.0114513)
(0.0114513 0.005 -0.0383258)
(0.0175915 0.005 -0.0359241)
(-0.0359241 0.005 0.0175915)
(0.0232538 0.005 -0.0325463)
(-0.0325463 0.005 0.0232538)
(0.0282843 0.005 -0.0282843)
(-0.0282843 0.005 0.0282843)
(0.0325463 0.005 -0.0232538)
(0.0359241 0.005 -0.0175915)
(-0.0232538 0.005 0.0325463)
(-0.0175915 0.005 0.0359241)
(0.0383258 0.005 -0.0114513)
(-0.0114513 0.005 0.0383258)
(-0.0383258 -0.005 -0.0114513)
(-0.0359241 -0.005 -0.0175915)
(-0.0325463 -0.005 -0.0232538)
(-0.0282843 -0.005 -0.0282843)
(-0.0232538 -0.005 -0.0325463)
(-0.0175915 -0.005 -0.0359241)
(-0.0114513 -0.005 -0.0383258)
(0.0114513 -0.005 -0.0383258)
(-0.0383258 -0.005 0.0114513)
(0.0175915 -0.005 -0.0359241)
(-0.0359241 -0.005 0.0175915)
(0.0232538 -0.005 -0.0325463)
(-0.0325463 -0.005 0.0232538)
(0.0282843 -0.005 -0.0282843)
(-0.0282843 -0.005 0.0282843)
(0.0325463 -0.005 -0.0232538)
(0.0359241 -0.005 -0.0175915)
(-0.0175915 -0.005 0.0359241)
(-0.0232538 -0.005 0.0325463)
(0.0383258 -0.005 -0.0114513)
(-0.0114513 -0.005 0.0383258)
)

// edges

152
(
(32 64)
(65 33)
(66 65)
(64 67)
(68 66)
(67 69)
(70 68)
(69 71)
(72 70)
(71 73)
(74 72)
(73 75)
(76 74)
(75 77)
(35 76)
(77 34)
(78 37)
(79 78)
(80 79)
(81 80)
(82 81)
(83 82)
(84 83)
(39 84)
(41 85)
(86 43)
(87 86)
(85 88)
(89 87)
(88 90)
(91 89)
(90 92)
(93 91)
(94 93)
(95 96)
(92 95)
(97 94)
(96 98)
(48 97)
(98 49)
(46 0)
(1 50)
(0 2)
(3 1)
(2 3)
(52 99)
(99 100)
(100 101)
(101 102)
(102 103)
(103 104)
(104 105)
(105 54)
(56 106)
(107 57)
(106 108)
(109 107)
(108 110)
(111 109)
(110 112)
(113 111)
(112 114)
(114 115)
(116 117)
(117 113)
(115 118)
(119 116)
(118 62)
(63 119)
(61 4)
(5 47)
(4 6)
(7 5)
(6 7)
(45 8)
(8 0)
(60 9)
(10 8)
(9 11)
(11 10)
(12 13)
(14 12)
(13 58)
(40 15)
(15 14)
(36 16)
(16 15)
(18 17)
(17 19)
(51 18)
(19 16)
(21 20)
(20 22)
(38 21)
(23 53)
(22 23)
(42 24)
(24 21)
(25 24)
(26 25)
(55 27)
(27 26)
(28 59)
(44 29)
(30 28)
(29 31)
(31 30)
(5 29)
(2 10)
(11 3)
(1 9)
(13 18)
(23 27)
(28 4)
(31 7)
(6 30)
(19 14)
(12 17)
(22 26)
(25 20)
(33 32)
(34 35)
(37 36)
(38 39)
(40 41)
(43 42)
(47 44)
(42 38)
(36 40)
(45 46)
(44 48)
(49 45)
(46 34)
(32 47)
(50 35)
(51 52)
(54 53)
(55 56)
(57 58)
(59 61)
(53 55)
(58 51)
(50 60)
(62 59)
(60 63)
(61 33)
(49 63)
(41 57)
(37 52)
(39 54)
(43 56)
(48 62)
)

// concaveStart mixedStart nonFeatureStart
32 32 64
// internalStart flatStart openStart multipleStart
120 152 152 152
// normals

224
(
(0.97848 0 0.206344)
(0 1 0)
(0.97848 0 0.206344)
(0 -1 0)
(0.931291 0 0.364275)
(-0 -1 0)
(0.931291 0 0.364275)
(0 1 0)
(0.858801 0 0.51231)
(-0 -1 0)
(0.858801 0 0.51231)
(0 1 0)
(0.762978 0 0.646425)
(-0 -1 0)
(0.762978 0 0.646425)
(0 1 0)
(0.646425 0 0.762978)
(0 -1 0)
(0.646425 0 0.762978)
(0 1 0)
(0.51231 0 0.858801)
(0 -1 0)
(0.51231 0 0.858801)
(0 1 0)
(0.364275 0 0.931291)
(0 -1 0)
(0.364275 0 0.931291)
(0 1 0)
(0.206344 0 0.97848)
(0 -1 0)
(0.206344 0 0.97848)
(0 1 0)
(0 1 0)
(-0.97848 -0 -0.206344)
(0 1 0)
(-0.931291 -0 -0.364275)
(0 1 0)
(-0.858801 -0 -0.51231)
(0 1 0)
(-0.762978 -0 -0.646425)
(0 1 0)
(-0.646425 -0 -0.762978)
(0 1 0)
(-0.51231 -0 -0.858801)
(0 1 0)
(-0.364275 -0 -0.931291)
(0 1 0)
(-0.206344 -0 -0.97848)
(0 1 0)
(-0.97848 0 0.206344)
(0 1 0)
(0.206344 0 -0.97848)
(0 1 0)
(0.364275 0 -0.931291)
(0 1 0)
(-0.931291 0 0.364275)
(0 1 0)
(0.51231 0 -0.858801)
(0 1 0)
(-0.858801 0 0.51231)
(0 1 0)
(0.646425 0 -0.762978)
(0 1 0)
(-0.762978 0 0.646425)
(0 1 0)
(0.762978 0 -0.646425)
(0 1 0)
(0.858801 0 -0.51231)
(0 1 0)
(-0.51231 0 0.858801)
(0 1 0)
(-0.646425 0 0.762978)
(0 1 0)
(0.931291 0 -0.364275)
(0 1 0)
(-0.364275 0 0.931291)
(0 1 0)
(0.97848 0 -0.206344)
(0 1 0)
(-0.206344 0 0.97848)
(1 0 0)
(0 0 -1)
(1 0 0)
(0 0 -1)
(1 0 0)
(0 1 -0)
(1 0 0)
(0 -1 -0)
(1 -0 0)
(0 0 1)
(0 -1 0)
(-0.97848 0 -0.206344)
(0 -1 0)
(-0.931291 0 -0.364275)
(0 -1 0)
(-0.858801 0 -0.51231)
(0 -1 0)
(-0.762978 0 -0.646425)
(0 -1 0)
(-0.646425 0 -0.762978)
(0 -1 0)
(-0.51231 0 -0.858801)
(0 -1 0)
(-0.364275 0 -0.931291)
(0 -1 0)
(-0.206344 0 -0.97848)
(-0 -1 0)
(0.206344 0 -0.97848)
(0 -1 0)
(-0.97848 0 0.206344)
(0 -1 0)
(0.364275 0 -0.931291)
(0 -1 0)
(-0.931291 0 0.364275)
(0 -1 0)
(0.51231 0 -0.858801)
(0 -1 0)
(-0.858801 0 0.51231)
(0 -1 0)
(0.646425 0 -0.762978)
(0 -1 0)
(-0.762978 0 0.646425)
(-0 -1 0)
(0.762978 0 -0.646425)
(-0 -1 0)
(0.858801 0 -0.51231)
(0 -1 0)
(-0.51231 0 0.858801)
(0 -1 0)
(-0.646425 0 0.762978)
(0 -1 0)
(0.931291 0 -0.364275)
(0 -1 0)
(-0.364275 0 0.931291)
(0 -1 0)
(0.97848 0 -0.206344)
(0 -1 0)
(-0.206344 0 0.97848)
(0 0 1)
(-1 0 0)
(0 0 1)
(-1 0 0)
(0 0 1)
(0 -1 0)
(0 0 1)
(0 1 -0)
(0 0 1)
(1 0 0)
(0 0 -1)
(-1 0 0)
(0 1 0)
(-1 0 0)
(0 0 -1)
(-1 0 0)
(-1 0 0)
(0 -1 0)
(-1 0 0)
(-0 0 1)
(0 0 1)
(0 -1 0)
(0 0 1)
(-1 -0 0)
(0 0 1)
(1 -0 0)
(0 0 1)
(1 -0 0)
(0 0 1)
(0 1 0)
(1 0 0)
(0 0 -1)
(0 1 -0)
(0 0 -1)
(0 -1 0)
(0 0 -1)
(-1 0 0)
(0 0 -1)
(1 0 0)
(0 0 -1)
(-1 0 0)
(0 1 0)
(-1 0 0)
(0 0 -1)
(-1 0 0)
(0 0 1)
(-1 0 0)
(0 0 1)
(-1 0 0)
(0 -1 0)
(-0 0 1)
(1 -0 0)
(1 -0 0)
(0 1 0)
(1 0 0)
(0 0 -1)
(1 -0 0)
(-0 0 1)
(1 0 0)
(0 -1 0)
(0 0 -1)
(-1 0 0)
(0 0 -1)
(-1 0 0)
(0 -0 -1)
(0 -1 0)
(0 0 -1)
(0 1 0)
(0 0 -1)
(1 0 0)
(0 0 1)
(1 0 0)
(0 1 0)
(0 1 0)
(0 1 0)
(0 1 0)
(-0 -1 -0)
(0 -1 0)
(0 -1 0)
(0 -1 0)
(-1 0 0)
(0 0 1)
(0 0 -1)
(-1 0 0)
(1 -0 0)
(0 0 -1)
)

// normal volume types

224
(
0
0
0
0
0
0
0
0
0
0
0
0
0
0
0
0
0
0
0
0
0
0
0
0
0
0
0
0
0
0
0
0
0
0
0
0
0
0
0
0
0
0
0
0
0
0
0
0
0
0
0
0
0
0
0
0
0
0
0
0
0
0
0
0
0
0
0
0
0
0
0
0
0
0
0
0
0
0
0
0
0
0
0
0
0
0
0
0
0
0
0
0
0
0
0
0
0
0
0
0
0
0
0
0
0
0
0
0
0
0
0
0
0
0
0
0
0
0
0
0
0
0
0
0
0
0
0
0
0
0
0
0
0
0
0
0
0
0
0
0
0
0
0
0
0
0
0
0
0
0
0
0
0
0
0
0
0
0
0
0
0
0
0
0
0
0
0
0
0
0
0
0
0
0
0
0
0
0
0
0
0
0
0
0
0
0
0
0
0
0
0
0
0
0
0
0
0
0
0
0
0
0
0
0
0
0
0
0
0
0
0
0
0
0
0
0
0
0
0
0
0
0
0
0
)

// normalDirections

152
(
2(1 -1)
2(1 -1)
2(1 -1)
2(1 -1)
2(1 -1)
2(1 -1)
2(1 -1)
2(1 -1)
2(1 -1)
2(1 -1)
2(1 -1)
2(1 -1)
2(1 -1)
2(1 -1)
2(1 -1)
2(1 -1)
2(1 -1)
2(1 -1)
2(1 -1)
2(1 -1)
2(1 -1)
2(1 -1)
2(1 -1)
2(1 -1)
2(1 -1)
2(1 -1)
2(1 -1)
2(1 -1)
2(1 -1)
2(1 -1)
2(1 -1)
2(1 -1)
2(1 -1)
2(1 -1)
2(1 -1)
2(1 -1)
2(1 -1)
2(1 -1)
2(1 -1)
2(1 -1)
2(1 -1)
2(1 -1)
2(1 -1)
2(1 -1)
2(1 -1)
2(1 -1)
2(1 -1)
2(1 -1)
2(1 -1)
2(1 -1)
2(1 -1)
2(1 -1)
2(1 -1)
2(1 -1)
2(1 -1)
2(1 -1)
2(1 -1)
2(1 -1)
2(1 -1)
2(1 -1)
2(1 -1)
2(1 -1)
2(1 -1)
2(1 -1)
2(1 -1)
2(1 -1)
2(1 -1)
2(1 -1)
2(1 -1)
2(1 -1)
2(1 -1)
2(1 -1)
2(1 -1)
2(1 -1)
2(1 -1)
2(1 -1)
2(1 -1)
2(1 -1)
2(1 -1)
2(1 -1)
2(1 -1)
2(1 -1)
2(1 -1)
2(1 -1)
2(1 -1)
2(1 -1)
2(1 -1)
2(1 -1)
2(1 -1)
2(1 -1)
2(1 -1)
2(1 -1)
2(1 -1)
2(1 -1)
2(1 -1)
2(1 -1)
2(1 -1)
2(1 -1)
2(1 -1)
2(1 -1)
2(1 -1)
2(1 -1)
2(1 -1)
2(1 -1)
2(1 -1)
2(1 -1)
2(1 -1)
2(1 -1)
2(1 -1)
2(1 -1)
2(1 -1)
2(1 -1)
2(1 -1)
2(1 -1)
2(1 -1)
2(1 -1)
2(1 -1)
2(1 -1)
2(1 -1)
2(1 -1)
2(1 -1)
2(1 -1)
2(1 -1)
2(1 -1)
2(1 -1)
2(1 -1)
2(1 -1)
2(1 -1)
2(1 -1)
2(1 -1)
2(1 -1)
2(1 -1)
2(1 -1)
2(1 -1)
2(1 -1)
2(1 -1)
2(1 -1)
2(1 -1)
2(1 -1)
2(1 -1)
2(1 -1)
2(1 -1)
2(1 -1)
2(1 -1)
2(1 -1)
2(1 -1)
2(1 -1)
2(1 -1)
2(1 -1)
2(1 -1)
2(1 -1)
2(1 -1)
)

// edgeNormals

152
(
2(0 1)
2(2 3)
2(4 5)
2(6 7)
2(8 9)
2(10 11)
2(12 13)
2(14 15)
2(16 17)
2(18 19)
2(20 21)
2(22 23)
2(24 25)
2(26 27)
2(28 29)
2(30 31)
2(32 33)
2(34 35)
2(36 37)
2(38 39)
2(40 41)
2(42 43)
2(44 45)
2(46 47)
2(48 49)
2(50 51)
2(52 53)
2(54 55)
2(56 57)
2(58 59)
2(60 61)
2(62 63)
2(64 65)
2(66 67)
2(68 69)
2(70 71)
2(72 73)
2(74 75)
2(76 77)
2(78 79)
2(80 81)
2(82 83)
2(84 85)
2(86 87)
2(88 89)
2(90 91)
2(92 93)
2(94 95)
2(96 97)
2(98 99)
2(100 101)
2(102 103)
2(104 105)
2(106 107)
2(108 109)
2(110 111)
2(112 113)
2(114 115)
2(116 117)
2(118 119)
2(120 121)
2(122 123)
2(124 125)
2(126 127)
2(128 129)
2(130 131)
2(132 133)
2(134 135)
2(136 137)
2(138 139)
2(140 141)
2(142 143)
2(144 145)
2(146 147)
2(148 149)
2(81 150)
2(151 152)
2(153 150)
2(154 155)
2(156 157)
2(158 159)
2(160 161)
2(162 163)
2(164 165)
2(166 167)
2(168 169)
2(165 170)
2(171 172)
2(173 174)
2(175 176)
2(177 170)
2(178 179)
2(180 181)
2(182 183)
2(184 185)
2(186 187)
2(188 189)
2(188 179)
2(190 191)
2(192 193)
2(194 195)
2(196 197)
2(198 199)
2(200 201)
2(202 203)
2(204 205)
2(206 207)
2(141 205)
2(157 85)
2(89 155)
2(152 87)
2(176 159)
2(185 197)
2(199 143)
2(207 145)
2(147 203)
2(167 174)
2(172 161)
2(187 193)
2(191 181)
2(0 208)
2(28 209)
2(32 169)
2(46 182)
2(48 164)
2(50 189)
2(210 201)
2(211 183)
2(212 168)
2(213 148)
2(76 200)
2(78 149)
2(31 80)
2(1 140)
2(82 29)
2(90 175)
2(104 184)
2(106 194)
2(108 162)
2(214 139)
2(215 195)
2(216 163)
2(217 83)
2(134 198)
2(136 151)
2(3 138)
2(218 79)
2(109 219)
2(220 33)
2(105 221)
2(222 51)
2(135 223)
)

// featurePointNormals

64
(
3(80 81 85)
3(82 83 87)
3(84 85 89)
3(86 87 89)
3(138 139 143)
3(140 141 145)
3(142 143 147)
3(144 145 147)
3(148 149 150)
3(151 152 155)
3(153 150 157)
3(154 155 157)
3(158 159 161)
3(158 159 163)
3(160 161 167)
3(164 165 167)
3(168 169 170)
3(171 172 174)
3(171 172 176)
3(173 174 170)
3(178 179 181)
3(178 179 183)
3(180 181 187)
3(184 185 187)
3(188 189 179)
3(190 191 193)
3(192 193 197)
3(194 195 197)
3(198 199 203)
3(200 201 205)
3(202 203 207)
3(204 205 207)
3(0 1 208)
3(2 3 208)
3(30 31 209)
3(28 29 209)
3(168 169 32)
3(32 33 169)
3(182 183 46)
3(46 47 182)
3(164 165 48)
3(48 49 164)
3(188 189 50)
3(50 51 189)
3(200 201 210)
3(148 149 213)
3(80 81 213)
3(140 141 210)
3(76 77 200)
3(78 79 149)
3(82 83 29)
3(175 176 90)
3(90 91 175)
3(184 185 104)
3(104 105 184)
3(194 195 106)
3(106 107 194)
3(108 109 162)
3(162 163 108)
3(198 199 214)
3(151 152 217)
3(138 139 214)
3(134 135 198)
3(136 137 151)
)

// featurePointEdges

64
(
3(42 75 40)
3(43 110 41)
3(44 108 42)
3(43 109 44)
3(71 113 69)
3(72 107 70)
3(73 115 71)
3(72 114 73)
3(75 77 74)
3(78 110 76)
3(79 108 77)
3(78 109 79)
3(81 117 80)
3(82 111 80)
3(84 116 81)
3(84 86 83)
3(86 90 85)
3(88 117 87)
3(89 111 87)
3(90 116 88)
3(92 119 91)
3(93 97 91)
3(95 118 92)
3(95 112 94)
3(96 98 97)
3(99 119 98)
3(101 118 99)
3(101 112 100)
3(104 113 102)
3(105 107 103)
3(106 115 104)
3(105 114 106)
3(0 133 120)
3(1 145 120)
3(15 132 121)
3(121 134 14)
3(128 85 122)
3(122 148 16)
3(123 93 127)
3(23 149 123)
3(128 83 124)
3(24 147 124)
3(127 96 125)
3(125 150 25)
3(130 103 126)
3(129 74 131)
3(129 40 132)
3(133 70 126)
3(38 151 130)
3(131 146 39)
3(134 142 41)
3(141 89 135)
3(135 148 45)
3(136 94 140)
3(52 149 136)
3(140 100 137)
3(137 150 53)
3(54 147 138)
3(141 82 138)
3(143 102 139)
3(142 76 144)
3(145 69 139)
3(67 151 143)
3(144 146 68)
)

// regionEdges
0()


// ************************************************************************* //
