/*--------------------------------*- C++ -*----------------------------------*\
| =========                 |                                                 |
| \\      /  F ield         | OpenFOAM: The Open Source CFD Toolbox           |
|  \\    /   O peration     | Version:  2312                                  |
|   \\  /    A nd           | Website:  www.openfoam.com                      |
|    \\/     M anipulation  |                                                 |
\*---------------------------------------------------------------------------*/
FoamFile
{
    version     2.0;
    format      ascii;
    arch        "LSB;label=32;scalar=64";
    class       extendedFeatureEdgeMesh;
    location    "constant/extendedFeatureEdgeMesh";
    object      vessel.extendedFeatureEdgeMesh;
}
// * * * * * * * * * * * * * * * * * * * * * * * * * * * * * * * * * * * * * //

// points

45
(
(0.209488 0.5 0.0146489)
(0.209488 0.5 -0.0146489)
(0.205411 0.5 -0.0436615)
(-0.21 0.5 0)
(-0.207956 0.5 0.0292264)
(-0.201865 0.5 0.0578838)
(-0.191845 0.5 0.0854147)
(-0.17809 0.5 0.111283)
(-0.160869 0.5 0.134985)
(-0.140517 0.5 0.15606)
(-0.117431 0.5 0.174098)
(-0.0920579 0.5 0.188747)
(-0.0648936 0.5 0.199722)
(-0.0364661 0.5 0.20681)
(-0.00732889 0.5 0.209872)
(0.021951 0.5 0.20885)
(0.0508036 0.5 0.203762)
(0.0786674 0.5 0.194709)
(0.105 0.5 0.181865)
(0.129289 0.5 0.165482)
(0.151061 0.5 0.145878)
(0.169894 0.5 0.123435)
(0.185419 0.5 0.098589)
(0.197335 0.5 0.0718242)
(0.205411 0.5 0.0436615)
(0.197335 0.5 -0.0718242)
(0.185419 0.5 -0.098589)
(0.169894 0.5 -0.123435)
(0.151061 0.5 -0.145878)
(0.129289 0.5 -0.165482)
(0.105 0.5 -0.181865)
(0.0786674 0.5 -0.194709)
(0.0508036 0.5 -0.203762)
(0.021951 0.5 -0.20885)
(-0.00732889 0.5 -0.209872)
(-0.0364661 0.5 -0.20681)
(-0.0648936 0.5 -0.199722)
(-0.0920579 0.5 -0.188747)
(-0.117431 0.5 -0.174098)
(-0.140517 0.5 -0.15606)
(-0.160869 0.5 -0.134985)
(-0.17809 0.5 -0.111283)
(-0.191845 0.5 -0.0854147)
(-0.201865 0.5 -0.0578838)
(-0.207956 0.5 -0.0292264)
)

// edges

45
(
(0 1)
(1 2)
(3 4)
(4 5)
(5 6)
(6 7)
(7 8)
(8 9)
(9 10)
(10 11)
(11 12)
(12 13)
(13 14)
(14 15)
(15 16)
(16 17)
(17 18)
(18 19)
(19 20)
(20 21)
(21 22)
(22 23)
(23 24)
(24 0)
(2 25)
(25 26)
(26 27)
(27 28)
(28 29)
(29 30)
(30 31)
(31 32)
(32 33)
(33 34)
(34 35)
(35 36)
(36 37)
(37 38)
(38 39)
(39 40)
(40 41)
(41 42)
(42 43)
(43 44)
(44 3)
)

// concaveStart mixedStart nonFeatureStart
0 0 0
// internalStart flatStart openStart multipleStart
45 45 45 45
// normals

87
(
(0 1 0)
(1 0 0)
(0.990268 0 -0.139173)
(-0 1 0)
(-0.997564 0 0.0697561)
(-0 1 0)
(-0.978148 0 0.207912)
(-0 1 0)
(-0.939693 0 0.34202)
(-0 1 0)
(-0.882947 0 0.469472)
(-0 1 0)
(-0.809017 0 0.587785)
(0 1 0)
(-0.71934 0 0.694658)
(0 1 0)
(-0.615662 0 0.788011)
(0 1 0)
(-0.5 0 0.866025)
(0 1 0)
(-0.374607 0 0.927184)
(0 1 0)
(-0.241922 0 0.970296)
(0 1 0)
(-0.104528 0 0.994522)
(0 1 0)
(0.0348994 0 0.999391)
(0 1 0)
(0.173648 0 0.984808)
(0 1 0)
(0.309017 0 0.951057)
(0 1 0)
(0.438371 0 0.898794)
(0 1 0)
(0.559193 0 0.829038)
(0.669131 0 0.743145)
(0 1 0)
(0.766045 0 0.642788)
(0.848048 0 0.529919)
(0 1 0)
(0.913545 0 0.406737)
(0 1 0)
(0.961262 0 0.275638)
(0 1 0)
(0.990268 0 0.139173)
(0 1 -0)
(0.961262 0 -0.275638)
(0 1 -0)
(0.913545 0 -0.406737)
(0 1 -0)
(0.848048 0 -0.529919)
(0 1 0)
(0.766045 0 -0.642788)
(0 1 0)
(0.669131 0 -0.743145)
(0 1 0)
(0.559193 0 -0.829038)
(0 1 0)
(0.438371 0 -0.898794)
(0 1 0)
(0.309017 0 -0.951057)
(0 1 0)
(0.173648 0 -0.984808)
(0 1 0)
(0.0348994 0 -0.999391)
(-0 1 0)
(-0.104528 -0 -0.994522)
(-0 1 0)
(-0.241922 0 -0.970296)
(-0 1 0)
(-0.374607 -0 -0.927184)
(-0 1 0)
(-0.5 0 -0.866025)
(-0 1 0)
(-0.615662 0 -0.788011)
(-0 1 0)
(-0.71934 0 -0.694658)
(-0 1 0)
(-0.809017 -0 -0.587785)
(-0 1 0)
(-0.882947 -0 -0.469472)
(-0 1 0)
(-0.939693 0 -0.34202)
(-0 1 0)
(-0.978148 -0 -0.207912)
(-0 1 0)
(-0.997564 0 -0.0697561)
)

// normal volume types

87
(
0
0
0
0
0
0
0
0
0
0
0
0
0
0
0
0
0
0
0
0
0
0
0
0
0
0
0
0
0
0
0
0
0
0
0
0
0
0
0
0
0
0
0
0
0
0
0
0
0
0
0
0
0
0
0
0
0
0
0
0
0
0
0
0
0
0
0
0
0
0
0
0
0
0
0
0
0
0
0
0
0
0
0
0
0
0
0
)

// normalDirections

45
(
2(1 -1)
2(1 -1)
2(1 -1)
2(1 -1)
2(1 -1)
2(1 -1)
2(1 -1)
2(1 -1)
2(1 -1)
2(1 -1)
2(1 -1)
2(1 -1)
2(1 -1)
2(1 -1)
2(1 -1)
2(1 -1)
2(1 -1)
2(1 -1)
2(1 -1)
2(1 -1)
2(1 -1)
2(1 -1)
2(1 -1)
2(1 -1)
2(1 -1)
2(1 -1)
2(1 -1)
2(1 -1)
2(1 -1)
2(1 -1)
2(1 -1)
2(1 -1)
2(1 -1)
2(1 -1)
2(1 -1)
2(1 -1)
2(1 -1)
2(1 -1)
2(1 -1)
2(1 -1)
2(1 -1)
2(1 -1)
2(1 -1)
2(1 -1)
2(1 -1)
)

// edgeNormals

45
(
2(0 1)
2(0 2)
2(3 4)
2(5 6)
2(7 8)
2(9 10)
2(11 12)
2(13 14)
2(15 16)
2(17 18)
2(19 20)
2(21 22)
2(23 24)
2(25 26)
2(27 28)
2(29 30)
2(31 32)
2(33 34)
2(33 35)
2(36 37)
2(36 38)
2(39 40)
2(41 42)
2(43 44)
2(45 46)
2(47 48)
2(49 50)
2(51 52)
2(53 54)
2(55 56)
2(57 58)
2(59 60)
2(61 62)
2(63 64)
2(65 66)
2(67 68)
2(69 70)
2(71 72)
2(73 74)
2(75 76)
2(77 78)
2(79 80)
2(81 82)
2(83 84)
2(85 86)
)

// featurePointNormals
0()
// featurePointEdges
0()
// regionEdges
0()


// ************************************************************************* //
